REMARK  Name = 
REMARK  5 active torsions:
REMARK  status: ('A' for Active; 'I' for Inactive)
REMARK    1  A    between atoms: C_1  and  C_2
REMARK    2  A    between atoms: C_1  and  C_7
REMARK    3  A    between atoms: C_2  and  C_4
REMARK    4  A    between atoms: C_4  and  O_6
REMARK    5  A    between atoms: C_7  and  O_9
REMARK                            x       y       z     vdW  Elec       q    Type
REMARK                         _______ _______ _______ _____ _____    ______ ____
ROOT
ATOM      1  C   UNL     1       6.620   3.909   4.905  0.00  0.00    -0.343 C 
ATOM      2  H   UNL     1       7.034   3.774   3.898  0.00  0.00    +0.245 HD
ATOM      3  H   UNL     1       6.982   3.106   5.551  0.00  0.00    +0.252 HD
ENDROOT
BRANCH   1   4
ATOM      4  C   UNL     1       5.111   3.900   4.868  0.00  0.00    +0.363 C 
ATOM      5  O   UNL     1       4.408   3.192   5.538  0.00  0.00    -0.409 OA
BRANCH   4   6
ATOM      6  C   UNL     1       4.540   4.950   3.897  0.00  0.00    +0.561 C 
ATOM      7  O   UNL     1       5.183   5.397   2.980  0.00  0.00    -0.464 OA
BRANCH   6   8
ATOM      8  O   UNL     1       3.286   5.282   4.192  0.00  0.00    -0.541 OA
ATOM      9  H   UNL     1       3.017   5.955   3.544  0.00  0.00    +0.375 HD
ENDBRANCH   6   8
ENDBRANCH   4   6
ENDBRANCH   1   4
BRANCH   1  10
ATOM     10  C   UNL     1       7.071   5.258   5.426  0.00  0.00    +0.635 C 
ATOM     11  O   UNL     1       6.311   6.141   5.749  0.00  0.00    -0.466 OA
BRANCH  10  12
ATOM     12  O   UNL     1       8.404   5.369   5.491  0.00  0.00    -0.576 OA
ATOM     13  H   UNL     1       8.587   6.265   5.822  0.00  0.00    +0.369 HD
ENDBRANCH  10  12
ENDBRANCH   1  10
TORSDOF 5
