MODEL 1
REMARK VINA RESULT:    -4.893      0.000      0.000
REMARK INTER + INTRA:          -6.334
REMARK INTER:                  -6.038
REMARK INTRA:                  -0.296
REMARK UNBOUND:                -0.296
REMARK  Name = 
REMARK  5 active torsions:
REMARK  status: ('A' for Active; 'I' for Inactive)
REMARK    1  A    between atoms: C_1  and  C_2
REMARK    2  A    between atoms: C_1  and  C_7
REMARK    3  A    between atoms: C_2  and  C_4
REMARK    4  A    between atoms: C_4  and  O_6
REMARK    5  A    between atoms: C_7  and  O_9
REMARK                            x       y       z     vdW  Elec       q    Type
REMARK                         _______ _______ _______ _____ _____    ______ ____
ROOT
ATOM      1  C   UNL     1       2.154  -0.046  -0.642  0.00  0.00    -0.343 C 
ATOM      2  H   UNL     1       2.868  -0.765  -1.062  0.00  0.00    +0.245 HD
ATOM      3  H   UNL     1       2.484   0.967  -0.881  0.00  0.00    +0.252 HD
ENDROOT
BRANCH   1   4
ATOM      4  C   UNL     1       2.045  -0.213   0.855  0.00  0.00    +0.363 C 
ATOM      5  O   UNL     1       1.036  -0.488   1.447  0.00  0.00    -0.409 OA
BRANCH   4   6
ATOM      6  C   UNL     1       3.400  -0.042   1.566  0.00  0.00    +0.561 C 
ATOM      7  O   UNL     1       3.508  -0.084   2.766  0.00  0.00    -0.464 OA
BRANCH   6   8
ATOM      8  O   UNL     1       4.400   0.148   0.709  0.00  0.00    -0.541 OA
ATOM      9  H   UNL     1       4.135  -0.275  -0.125  0.00  0.00    +0.375 HD
ENDBRANCH   6   8
ENDBRANCH   4   6
ENDBRANCH   1   4
BRANCH   1  10
ATOM     10  C   UNL     1       0.793  -0.322  -1.247  0.00  0.00    +0.635 C 
ATOM     11  O   UNL     1       0.074   0.538  -1.700  0.00  0.00    -0.466 OA
BRANCH  10  12
ATOM     12  O   UNL     1       0.471  -1.622  -1.228  0.00  0.00    -0.576 OA
ATOM     13  H   UNL     1       0.246  -1.833  -0.306  0.00  0.00    +0.369 HD
ENDBRANCH  10  12
ENDBRANCH   1  10
TORSDOF 5
ENDMDL
MODEL 2
REMARK VINA RESULT:    -4.860      1.129      2.096
REMARK INTER + INTRA:          -6.292
REMARK INTER:                  -5.998
REMARK INTRA:                  -0.294
REMARK UNBOUND:                -0.296
REMARK  Name = 
REMARK  5 active torsions:
REMARK  status: ('A' for Active; 'I' for Inactive)
REMARK    1  A    between atoms: C_1  and  C_2
REMARK    2  A    between atoms: C_1  and  C_7
REMARK    3  A    between atoms: C_2  and  C_4
REMARK    4  A    between atoms: C_4  and  O_6
REMARK    5  A    between atoms: C_7  and  O_9
REMARK                            x       y       z     vdW  Elec       q    Type
REMARK                         _______ _______ _______ _____ _____    ______ ____
ROOT
ATOM      1  C   UNL     1       0.539  -0.363   0.354  0.00  0.00    -0.343 C 
ATOM      2  H   UNL     1      -0.074   0.418   0.820  0.00  0.00    +0.245 HD
ATOM      3  H   UNL     1       0.138  -1.342   0.625  0.00  0.00    +0.252 HD
ENDROOT
BRANCH   1   4
ATOM      4  C   UNL     1       1.976  -0.252   0.802  0.00  0.00    +0.363 C 
ATOM      5  O   UNL     1       2.909  -0.022   0.080  0.00  0.00    -0.409 OA
BRANCH   4   6
ATOM      6  C   UNL     1       2.132  -0.417   2.325  0.00  0.00    +0.561 C 
ATOM      7  O   UNL     1       3.203  -0.345   2.875  0.00  0.00    -0.464 OA
BRANCH   6   8
ATOM      8  O   UNL     1       0.968  -0.638   2.931  0.00  0.00    -0.541 OA
ATOM      9  H   UNL     1       0.536   0.227   3.025  0.00  0.00    +0.375 HD
ENDBRANCH   6   8
ENDBRANCH   4   6
ENDBRANCH   1   4
BRANCH   1  10
ATOM     10  C   UNL     1       0.497  -0.166  -1.148  0.00  0.00    +0.635 C 
ATOM     11  O   UNL     1       0.333  -1.066  -1.938  0.00  0.00    -0.466 OA
BRANCH  10  12
ATOM     12  O   UNL     1       0.661   1.114  -1.507  0.00  0.00    -0.576 OA
ATOM     13  H   UNL     1       0.674   1.124  -2.480  0.00  0.00    +0.369 HD
ENDBRANCH  10  12
ENDBRANCH   1  10
TORSDOF 5
ENDMDL
MODEL 3
REMARK VINA RESULT:    -4.825      1.581      3.790
REMARK INTER + INTRA:          -6.249
REMARK INTER:                  -6.106
REMARK INTRA:                  -0.144
REMARK UNBOUND:                -0.296
REMARK  Name = 
REMARK  5 active torsions:
REMARK  status: ('A' for Active; 'I' for Inactive)
REMARK    1  A    between atoms: C_1  and  C_2
REMARK    2  A    between atoms: C_1  and  C_7
REMARK    3  A    between atoms: C_2  and  C_4
REMARK    4  A    between atoms: C_4  and  O_6
REMARK    5  A    between atoms: C_7  and  O_9
REMARK                            x       y       z     vdW  Elec       q    Type
REMARK                         _______ _______ _______ _____ _____    ______ ____
ROOT
ATOM      1  C   UNL     1       0.672  -1.117   1.188  0.00  0.00    -0.343 C 
ATOM      2  H   UNL     1       1.252  -1.948   1.609  0.00  0.00    +0.245 HD
ATOM      3  H   UNL     1      -0.218  -1.515   0.695  0.00  0.00    +0.252 HD
ENDROOT
BRANCH   1   4
ATOM      4  C   UNL     1       1.501  -0.334   0.199  0.00  0.00    +0.363 C 
ATOM      5  O   UNL     1       2.610   0.083   0.405  0.00  0.00    -0.409 OA
BRANCH   4   6
ATOM      6  C   UNL     1       0.790  -0.156  -1.155  0.00  0.00    +0.561 C 
ATOM      7  O   UNL     1       0.404  -1.094  -1.808  0.00  0.00    -0.464 OA
BRANCH   6   8
ATOM      8  O   UNL     1       0.659   1.124  -1.493  0.00  0.00    -0.541 OA
ATOM      9  H   UNL     1       0.799   1.173  -2.454  0.00  0.00    +0.375 HD
ENDBRANCH   6   8
ENDBRANCH   4   6
ENDBRANCH   1   4
BRANCH   1  10
ATOM     10  C   UNL     1       0.285  -0.188   2.320  0.00  0.00    +0.635 C 
ATOM     11  O   UNL     1      -0.571   0.661   2.229  0.00  0.00    -0.466 OA
BRANCH  10  12
ATOM     12  O   UNL     1       0.994  -0.406   3.435  0.00  0.00    -0.576 OA
ATOM     13  H   UNL     1       0.443  -0.973   4.002  0.00  0.00    +0.369 HD
ENDBRANCH  10  12
ENDBRANCH   1  10
TORSDOF 5
ENDMDL
MODEL 4
REMARK VINA RESULT:    -4.822      1.252      3.800
REMARK INTER + INTRA:          -6.245
REMARK INTER:                  -6.040
REMARK INTRA:                  -0.205
REMARK UNBOUND:                -0.296
REMARK  Name = 
REMARK  5 active torsions:
REMARK  status: ('A' for Active; 'I' for Inactive)
REMARK    1  A    between atoms: C_1  and  C_2
REMARK    2  A    between atoms: C_1  and  C_7
REMARK    3  A    between atoms: C_2  and  C_4
REMARK    4  A    between atoms: C_4  and  O_6
REMARK    5  A    between atoms: C_7  and  O_9
REMARK                            x       y       z     vdW  Elec       q    Type
REMARK                         _______ _______ _______ _____ _____    ______ ____
ROOT
ATOM      1  C   UNL     1       2.835   0.570  -0.698  0.00  0.00    -0.343 C 
ATOM      2  H   UNL     1       3.039   1.513  -0.176  0.00  0.00    +0.245 HD
ATOM      3  H   UNL     1       2.589   0.783  -1.740  0.00  0.00    +0.252 HD
ENDROOT
BRANCH   1   4
ATOM      4  C   UNL     1       1.695  -0.168  -0.040  0.00  0.00    +0.363 C 
ATOM      5  O   UNL     1       1.618  -0.416   1.134  0.00  0.00    -0.409 OA
BRANCH   4   6
ATOM      6  C   UNL     1       0.582  -0.541  -1.037  0.00  0.00    +0.561 C 
ATOM      7  O   UNL     1       0.025   0.282  -1.719  0.00  0.00    -0.464 OA
BRANCH   6   8
ATOM      8  O   UNL     1       0.331  -1.848  -1.048  0.00  0.00    -0.541 OA
ATOM      9  H   UNL     1       0.851  -2.237  -0.325  0.00  0.00    +0.375 HD
ENDBRANCH   6   8
ENDBRANCH   4   6
ENDBRANCH   1   4
BRANCH   1  10
ATOM     10  C   UNL     1       4.073  -0.299  -0.608  0.00  0.00    +0.635 C 
ATOM     11  O   UNL     1       4.361  -1.143  -1.424  0.00  0.00    -0.466 OA
BRANCH  10  12
ATOM     12  O   UNL     1       4.817  -0.031   0.473  0.00  0.00    -0.576 OA
ATOM     13  H   UNL     1       4.579   0.870   0.751  0.00  0.00    +0.369 HD
ENDBRANCH  10  12
ENDBRANCH   1  10
TORSDOF 5
ENDMDL
MODEL 5
REMARK VINA RESULT:    -4.749      1.559      3.776
REMARK INTER + INTRA:          -6.155
REMARK INTER:                  -5.964
REMARK INTRA:                  -0.191
REMARK UNBOUND:                -0.296
REMARK  Name = 
REMARK  5 active torsions:
REMARK  status: ('A' for Active; 'I' for Inactive)
REMARK    1  A    between atoms: C_1  and  C_2
REMARK    2  A    between atoms: C_1  and  C_7
REMARK    3  A    between atoms: C_2  and  C_4
REMARK    4  A    between atoms: C_4  and  O_6
REMARK    5  A    between atoms: C_7  and  O_9
REMARK                            x       y       z     vdW  Elec       q    Type
REMARK                         _______ _______ _______ _____ _____    ______ ____
ROOT
ATOM      1  C   UNL     1       0.616  -1.119   1.260  0.00  0.00    -0.343 C 
ATOM      2  H   UNL     1       1.105  -2.011   1.671  0.00  0.00    +0.245 HD
ATOM      3  H   UNL     1      -0.307  -1.416   0.758  0.00  0.00    +0.252 HD
ENDROOT
BRANCH   1   4
ATOM      4  C   UNL     1       1.527  -0.411   0.287  0.00  0.00    +0.363 C 
ATOM      5  O   UNL     1       2.614   0.028   0.552  0.00  0.00    -0.409 OA
BRANCH   4   6
ATOM      6  C   UNL     1       0.935  -0.347  -1.133  0.00  0.00    +0.561 C 
ATOM      7  O   UNL     1       0.452   0.660  -1.586  0.00  0.00    -0.464 OA
BRANCH   6   8
ATOM      8  O   UNL     1       1.030  -1.510  -1.773  0.00  0.00    -0.541 OA
ATOM      9  H   UNL     1       1.170  -2.191  -1.093  0.00  0.00    +0.375 HD
ENDBRANCH   6   8
ENDBRANCH   4   6
ENDBRANCH   1   4
BRANCH   1  10
ATOM     10  C   UNL     1       0.320  -0.170   2.404  0.00  0.00    +0.635 C 
ATOM     11  O   UNL     1      -0.527   0.691   2.359  0.00  0.00    -0.466 OA
BRANCH  10  12
ATOM     12  O   UNL     1       1.098  -0.388   3.472  0.00  0.00    -0.576 OA
ATOM     13  H   UNL     1       0.525  -0.789   4.149  0.00  0.00    +0.369 HD
ENDBRANCH  10  12
ENDBRANCH   1  10
TORSDOF 5
ENDMDL
MODEL 6
REMARK VINA RESULT:    -4.742      1.590      3.862
REMARK INTER + INTRA:          -6.147
REMARK INTER:                  -5.990
REMARK INTRA:                  -0.158
REMARK UNBOUND:                -0.296
REMARK  Name = 
REMARK  5 active torsions:
REMARK  status: ('A' for Active; 'I' for Inactive)
REMARK    1  A    between atoms: C_1  and  C_2
REMARK    2  A    between atoms: C_1  and  C_7
REMARK    3  A    between atoms: C_2  and  C_4
REMARK    4  A    between atoms: C_4  and  O_6
REMARK    5  A    between atoms: C_7  and  O_9
REMARK                            x       y       z     vdW  Elec       q    Type
REMARK                         _______ _______ _______ _____ _____    ______ ____
ROOT
ATOM      1  C   UNL     1       0.651  -1.074   1.156  0.00  0.00    -0.343 C 
ATOM      2  H   UNL     1       1.176  -1.948   1.562  0.00  0.00    +0.245 HD
ATOM      3  H   UNL     1      -0.272  -1.404   0.674  0.00  0.00    +0.252 HD
ENDROOT
BRANCH   1   4
ATOM      4  C   UNL     1       1.520  -0.343   0.162  0.00  0.00    +0.363 C 
ATOM      5  O   UNL     1       2.653   0.005   0.359  0.00  0.00    -0.409 OA
BRANCH   4   6
ATOM      6  C   UNL     1       0.811  -0.122  -1.188  0.00  0.00    +0.561 C 
ATOM      7  O   UNL     1       0.399  -1.037  -1.856  0.00  0.00    -0.464 OA
BRANCH   6   8
ATOM      8  O   UNL     1       0.714   1.167  -1.503  0.00  0.00    -0.541 OA
ATOM      9  H   UNL     1       1.300   1.311  -2.266  0.00  0.00    +0.375 HD
ENDBRANCH   6   8
ENDBRANCH   4   6
ENDBRANCH   1   4
BRANCH   1  10
ATOM     10  C   UNL     1       0.348  -0.130   2.301  0.00  0.00    +0.635 C 
ATOM     11  O   UNL     1       0.872  -0.202   3.388  0.00  0.00    -0.466 OA
BRANCH  10  12
ATOM     12  O   UNL     1      -0.566   0.796   1.981  0.00  0.00    -0.576 OA
ATOM     13  H   UNL     1      -1.411   0.323   1.887  0.00  0.00    +0.369 HD
ENDBRANCH  10  12
ENDBRANCH   1  10
TORSDOF 5
ENDMDL
MODEL 7
REMARK VINA RESULT:    -4.726      1.244      3.749
REMARK INTER + INTRA:          -6.127
REMARK INTER:                  -5.976
REMARK INTRA:                  -0.151
REMARK UNBOUND:                -0.296
REMARK  Name = 
REMARK  5 active torsions:
REMARK  status: ('A' for Active; 'I' for Inactive)
REMARK    1  A    between atoms: C_1  and  C_2
REMARK    2  A    between atoms: C_1  and  C_7
REMARK    3  A    between atoms: C_2  and  C_4
REMARK    4  A    between atoms: C_4  and  O_6
REMARK    5  A    between atoms: C_7  and  O_9
REMARK                            x       y       z     vdW  Elec       q    Type
REMARK                         _______ _______ _______ _____ _____    ______ ____
ROOT
ATOM      1  C   UNL     1       2.836   0.550  -0.680  0.00  0.00    -0.343 C 
ATOM      2  H   UNL     1       3.028   1.524  -0.214  0.00  0.00    +0.245 HD
ATOM      3  H   UNL     1       2.662   0.693  -1.748  0.00  0.00    +0.252 HD
ENDROOT
BRANCH   1   4
ATOM      4  C   UNL     1       1.638  -0.118  -0.047  0.00  0.00    +0.363 C 
ATOM      5  O   UNL     1       1.492  -0.300   1.132  0.00  0.00    -0.409 OA
BRANCH   4   6
ATOM      6  C   UNL     1       0.568  -0.510  -1.083  0.00  0.00    +0.561 C 
ATOM      7  O   UNL     1       0.020   0.305  -1.783  0.00  0.00    -0.464 OA
BRANCH   6   8
ATOM      8  O   UNL     1       0.341  -1.820  -1.104  0.00  0.00    -0.541 OA
ATOM      9  H   UNL     1      -0.257  -2.010  -0.361  0.00  0.00    +0.375 HD
ENDBRANCH   6   8
ENDBRANCH   4   6
ENDBRANCH   1   4
BRANCH   1  10
ATOM     10  C   UNL     1       4.044  -0.334  -0.449  0.00  0.00    +0.635 C 
ATOM     11  O   UNL     1       4.863  -0.138   0.419  0.00  0.00    -0.466 OA
BRANCH  10  12
ATOM     12  O   UNL     1       4.111  -1.357  -1.310  0.00  0.00    -0.576 OA
ATOM     13  H   UNL     1       4.285  -2.151  -0.777  0.00  0.00    +0.369 HD
ENDBRANCH  10  12
ENDBRANCH   1  10
TORSDOF 5
ENDMDL
MODEL 8
REMARK VINA RESULT:    -4.644      1.557      3.187
REMARK INTER + INTRA:          -6.026
REMARK INTER:                  -5.711
REMARK INTRA:                  -0.315
REMARK UNBOUND:                -0.296
REMARK  Name = 
REMARK  5 active torsions:
REMARK  status: ('A' for Active; 'I' for Inactive)
REMARK    1  A    between atoms: C_1  and  C_2
REMARK    2  A    between atoms: C_1  and  C_7
REMARK    3  A    between atoms: C_2  and  C_4
REMARK    4  A    between atoms: C_4  and  O_6
REMARK    5  A    between atoms: C_7  and  O_9
REMARK                            x       y       z     vdW  Elec       q    Type
REMARK                         _______ _______ _______ _____ _____    ______ ____
ROOT
ATOM      1  C   UNL     1       1.959   0.395  -1.049  0.00  0.00    -0.343 C 
ATOM      2  H   UNL     1       1.938   1.300  -0.429  0.00  0.00    +0.245 HD
ATOM      3  H   UNL     1       1.866   0.679  -2.099  0.00  0.00    +0.252 HD
ENDROOT
BRANCH   1   4
ATOM      4  C   UNL     1       0.839  -0.541  -0.666  0.00  0.00    +0.363 C 
ATOM      5  O   UNL     1       0.354  -1.370  -1.389  0.00  0.00    -0.409 OA
BRANCH   4   6
ATOM      6  C   UNL     1       0.395  -0.361   0.797  0.00  0.00    +0.561 C 
ATOM      7  O   UNL     1       0.736  -1.117   1.672  0.00  0.00    -0.464 OA
BRANCH   6   8
ATOM      8  O   UNL     1      -0.383   0.706   0.962  0.00  0.00    -0.541 OA
ATOM      9  H   UNL     1      -1.301   0.387   0.937  0.00  0.00    +0.375 HD
ENDBRANCH   6   8
ENDBRANCH   4   6
ENDBRANCH   1   4
BRANCH   1  10
ATOM     10  C   UNL     1       3.273  -0.317  -0.803  0.00  0.00    +0.635 C 
ATOM     11  O   UNL     1       4.051  -0.009   0.070  0.00  0.00    -0.466 OA
BRANCH  10  12
ATOM     12  O   UNL     1       3.483  -1.328  -1.657  0.00  0.00    -0.576 OA
ATOM     13  H   UNL     1       3.566  -2.130  -1.114  0.00  0.00    +0.369 HD
ENDBRANCH  10  12
ENDBRANCH   1  10
TORSDOF 5
ENDMDL
MODEL 9
REMARK VINA RESULT:    -4.619      1.738      3.122
REMARK INTER + INTRA:          -5.994
REMARK INTER:                  -5.662
REMARK INTRA:                  -0.332
REMARK UNBOUND:                -0.296
REMARK  Name = 
REMARK  5 active torsions:
REMARK  status: ('A' for Active; 'I' for Inactive)
REMARK    1  A    between atoms: C_1  and  C_2
REMARK    2  A    between atoms: C_1  and  C_7
REMARK    3  A    between atoms: C_2  and  C_4
REMARK    4  A    between atoms: C_4  and  O_6
REMARK    5  A    between atoms: C_7  and  O_9
REMARK                            x       y       z     vdW  Elec       q    Type
REMARK                         _______ _______ _______ _____ _____    ______ ____
ROOT
ATOM      1  C   UNL     1       0.335  -0.931   0.397  0.00  0.00    -0.343 C 
ATOM      2  H   UNL     1       1.027  -1.751   0.624  0.00  0.00    +0.245 HD
ATOM      3  H   UNL     1      -0.618  -1.350   0.066  0.00  0.00    +0.252 HD
ENDROOT
BRANCH   1   4
ATOM      4  C   UNL     1       0.903  -0.034  -0.676  0.00  0.00    +0.363 C 
ATOM      5  O   UNL     1       0.256   0.684  -1.390  0.00  0.00    -0.409 OA
BRANCH   4   6
ATOM      6  C   UNL     1       2.441  -0.092  -0.738  0.00  0.00    +0.561 C 
ATOM      7  O   UNL     1       3.139   0.732  -0.201  0.00  0.00    -0.464 OA
BRANCH   6   8
ATOM      8  O   UNL     1       2.879  -1.137  -1.435  0.00  0.00    -0.541 OA
ATOM      9  H   UNL     1       2.754  -0.917  -2.373  0.00  0.00    +0.375 HD
ENDBRANCH   6   8
ENDBRANCH   4   6
ENDBRANCH   1   4
BRANCH   1  10
ATOM     10  C   UNL     1       0.148  -0.105   1.652  0.00  0.00    +0.635 C 
ATOM     11  O   UNL     1       0.731  -0.319   2.690  0.00  0.00    -0.466 OA
BRANCH  10  12
ATOM     12  O   UNL     1      -0.733   0.891   1.491  0.00  0.00    -0.576 OA
ATOM     13  H   UNL     1      -0.920   0.938   0.538  0.00  0.00    +0.369 HD
ENDBRANCH  10  12
ENDBRANCH   1  10
TORSDOF 5
ENDMDL
MODEL 10
REMARK VINA RESULT:    -4.540      2.093      2.846
REMARK INTER + INTRA:          -5.898
REMARK INTER:                  -5.663
REMARK INTRA:                  -0.235
REMARK UNBOUND:                -0.296
REMARK  Name = 
REMARK  5 active torsions:
REMARK  status: ('A' for Active; 'I' for Inactive)
REMARK    1  A    between atoms: C_1  and  C_2
REMARK    2  A    between atoms: C_1  and  C_7
REMARK    3  A    between atoms: C_2  and  C_4
REMARK    4  A    between atoms: C_4  and  O_6
REMARK    5  A    between atoms: C_7  and  O_9
REMARK                            x       y       z     vdW  Elec       q    Type
REMARK                         _______ _______ _______ _____ _____    ______ ____
ROOT
ATOM      1  C   UNL     1       1.113  -0.479   0.695  0.00  0.00    -0.343 C 
ATOM      2  H   UNL     1       1.009  -1.546   0.462  0.00  0.00    +0.245 HD
ATOM      3  H   UNL     1       0.749   0.109  -0.151  0.00  0.00    +0.252 HD
ENDROOT
BRANCH   1   4
ATOM      4  C   UNL     1       2.554  -0.132   0.982  0.00  0.00    +0.363 C 
ATOM      5  O   UNL     1       3.057  -0.120   2.073  0.00  0.00    -0.409 OA
BRANCH   4   6
ATOM      6  C   UNL     1       3.354   0.166  -0.300  0.00  0.00    +0.561 C 
ATOM      7  O   UNL     1       3.904  -0.701  -0.933  0.00  0.00    -0.464 OA
BRANCH   6   8
ATOM      8  O   UNL     1       3.352   1.460  -0.607  0.00  0.00    -0.541 OA
ATOM      9  H   UNL     1       3.382   1.515  -1.578  0.00  0.00    +0.375 HD
ENDBRANCH   6   8
ENDBRANCH   4   6
ENDBRANCH   1   4
BRANCH   1  10
ATOM     10  C   UNL     1       0.300  -0.184   1.939  0.00  0.00    +0.635 C 
ATOM     11  O   UNL     1      -0.570   0.653   1.989  0.00  0.00    -0.466 OA
BRANCH  10  12
ATOM     12  O   UNL     1       0.650  -0.951   2.980  0.00  0.00    -0.576 OA
ATOM     13  H   UNL     1       0.184  -1.797   2.863  0.00  0.00    +0.369 HD
ENDBRANCH  10  12
ENDBRANCH   1  10
TORSDOF 5
ENDMDL
