
     RDKit          3D

 13 12  0  0  0  0  0  0  0  0999 V2000
    0.7159   -0.8760    0.3070 C   0  0  0  0  0  0  0  0  0  0  0  0
   -0.7707   -0.9269    0.1336 C   0  0  0  0  0  0  0  0  0  0  0  0
   -1.4773   -1.8077    0.6100 O   0  0  0  0  0  0  0  0  0  0  0  0
   -1.3691    0.1576   -0.7678 C   0  0  0  0  0  0  0  0  0  0  0  0
   -0.7498    0.6853   -1.6715 O   0  0  0  0  0  0  0  0  0  0  0  0
   -2.6319    0.4661   -0.4653 O   0  0  0  0  0  0  0  0  0  0  0  0
    1.1978    0.4624    0.7584 C   0  0  0  0  0  0  0  0  0  0  0  0
    0.5145    1.3906    1.1547 O   0  0  0  0  0  0  0  0  0  0  0  0
    2.5403    0.5622    0.7200 O   0  0  0  0  0  0  0  0  0  0  0  0
    1.1798   -1.1352   -0.6499 H   0  0  0  0  0  0  0  0  0  0  0  0
    1.0051   -1.6157    1.0606 H   0  0  0  0  0  0  0  0  0  0  0  0
   -2.8888    1.1679   -1.0964 H   0  0  0  0  0  0  0  0  0  0  0  0
    2.7343    1.4695    1.0393 H   0  0  0  0  0  0  0  0  0  0  0  0
  1  2  1  0
  2  3  2  0
  2  4  1  0
  4  5  2  0
  4  6  1  0
  1  7  1  0
  7  8  2  0
  7  9  1  0
  1 10  1  0
  1 11  1  0
  6 12  1  0
  9 13  1  0
M  END
