=
 OpenBabel10302402263D

 13 12  0  0  0  0  0  0  0  0999 V2000
    2.1540   -0.0460   -0.6420 C   0  0  0  0  0  0  0  0  0  0  0  0
    2.8680   -0.7650   -1.0620 H   0  0  0  0  0  0  0  0  0  0  0  0
    2.4840    0.9670   -0.8810 H   0  0  0  0  0  0  0  0  0  0  0  0
    2.0450   -0.2130    0.8550 C   0  0  0  0  0  0  0  0  0  0  0  0
    1.0360   -0.4880    1.4470 O   0  0  0  0  0  0  0  0  0  0  0  0
    3.4000   -0.0420    1.5660 C   0  0  0  0  0  0  0  0  0  0  0  0
    3.5080   -0.0840    2.7660 O   0  0  0  0  0  0  0  0  0  0  0  0
    4.4000    0.1480    0.7090 O   0  0  0  0  0  0  0  0  0  0  0  0
    4.1350   -0.2750   -0.1250 H   0  0  0  0  0  0  0  0  0  0  0  0
    0.7930   -0.3220   -1.2470 C   0  0  0  0  0  0  0  0  0  0  0  0
    0.0740    0.5380   -1.7000 O   0  0  0  0  0  0  0  0  0  0  0  0
    0.4710   -1.6220   -1.2280 O   0  0  0  0  0  0  0  0  0  0  0  0
    0.2460   -1.8330   -0.3060 H   0  0  0  0  0  0  0  0  0  0  0  0
  1  4  1  0  0  0  0
  2  1  1  0  0  0  0
  3  1  1  0  0  0  0
  4  5  2  0  0  0  0
  4  6  1  0  0  0  0
  6  7  2  0  0  0  0
  8  6  1  0  0  0  0
  9  8  1  0  0  0  0
 10 12  1  0  0  0  0
 10  1  1  0  0  0  0
 11 10  2  0  0  0  0
 12 13  1  0  0  0  0
M  END
>  <MODEL>
1

>  <REMARK>
 VINA RESULT:    -4.893      0.000      0.000
 INTER + INTRA:          -6.334
 INTER:                  -6.038
 INTRA:                  -0.296
 UNBOUND:                -0.296
  Name = 
  5 active torsions:
  status: ('A' for Active; 'I' for Inactive)
    1  A    between atoms: C_1  and  C_2
    2  A    between atoms: C_1  and  C_7
    3  A    between atoms: C_2  and  C_4
    4  A    between atoms: C_4  and  O_6
    5  A    between atoms: C_7  and  O_9
                            x       y       z     vdW  Elec       q    Type
                         _______ _______ _______ _____ _____    ______ ____

>  <TORSDO>
F 5

$$$$
=
 OpenBabel10302402263D

 13 12  0  0  0  0  0  0  0  0999 V2000
    0.5390   -0.3630    0.3540 C   0  0  0  0  0  0  0  0  0  0  0  0
   -0.0740    0.4180    0.8200 H   0  0  0  0  0  0  0  0  0  0  0  0
    0.1380   -1.3420    0.6250 H   0  0  0  0  0  0  0  0  0  0  0  0
    1.9760   -0.2520    0.8020 C   0  0  0  0  0  0  0  0  0  0  0  0
    2.9090   -0.0220    0.0800 O   0  0  0  0  0  0  0  0  0  0  0  0
    2.1320   -0.4170    2.3250 C   0  0  0  0  0  0  0  0  0  0  0  0
    3.2030   -0.3450    2.8750 O   0  0  0  0  0  0  0  0  0  0  0  0
    0.9680   -0.6380    2.9310 O   0  0  0  0  0  0  0  0  0  0  0  0
    0.5360    0.2270    3.0250 H   0  0  0  0  0  0  0  0  0  0  0  0
    0.4970   -0.1660   -1.1480 C   0  0  0  0  0  0  0  0  0  0  0  0
    0.3330   -1.0660   -1.9380 O   0  0  0  0  0  0  0  0  0  0  0  0
    0.6610    1.1140   -1.5070 O   0  0  0  0  0  0  0  0  0  0  0  0
    0.6740    1.1240   -2.4800 H   0  0  0  0  0  0  0  0  0  0  0  0
  1  3  1  0  0  0  0
  1  4  1  0  0  0  0
  1  2  1  0  0  0  0
  4  6  1  0  0  0  0
  5  4  2  0  0  0  0
  6  7  2  0  0  0  0
  6  8  1  0  0  0  0
  8  9  1  0  0  0  0
 10  1  1  0  0  0  0
 11 10  2  0  0  0  0
 12 10  1  0  0  0  0
 13 12  1  0  0  0  0
M  END
>  <MODEL>
2

>  <REMARK>
 VINA RESULT:    -4.860      1.129      2.096
 INTER + INTRA:          -6.292
 INTER:                  -5.998
 INTRA:                  -0.294
 UNBOUND:                -0.296
  Name = 
  5 active torsions:
  status: ('A' for Active; 'I' for Inactive)
    1  A    between atoms: C_1  and  C_2
    2  A    between atoms: C_1  and  C_7
    3  A    between atoms: C_2  and  C_4
    4  A    between atoms: C_4  and  O_6
    5  A    between atoms: C_7  and  O_9
                            x       y       z     vdW  Elec       q    Type
                         _______ _______ _______ _____ _____    ______ ____

>  <TORSDO>
F 5

$$$$
=
 OpenBabel10302402263D

 13 12  0  0  0  0  0  0  0  0999 V2000
    0.6720   -1.1170    1.1880 C   0  0  0  0  0  0  0  0  0  0  0  0
    1.2520   -1.9480    1.6090 H   0  0  0  0  0  0  0  0  0  0  0  0
   -0.2180   -1.5150    0.6950 H   0  0  0  0  0  0  0  0  0  0  0  0
    1.5010   -0.3340    0.1990 C   0  0  0  0  0  0  0  0  0  0  0  0
    2.6100    0.0830    0.4050 O   0  0  0  0  0  0  0  0  0  0  0  0
    0.7900   -0.1560   -1.1550 C   0  0  0  0  0  0  0  0  0  0  0  0
    0.4040   -1.0940   -1.8080 O   0  0  0  0  0  0  0  0  0  0  0  0
    0.6590    1.1240   -1.4930 O   0  0  0  0  0  0  0  0  0  0  0  0
    0.7990    1.1730   -2.4540 H   0  0  0  0  0  0  0  0  0  0  0  0
    0.2850   -0.1880    2.3200 C   0  0  0  0  0  0  0  0  0  0  0  0
   -0.5710    0.6610    2.2290 O   0  0  0  0  0  0  0  0  0  0  0  0
    0.9940   -0.4060    3.4350 O   0  0  0  0  0  0  0  0  0  0  0  0
    0.4430   -0.9730    4.0020 H   0  0  0  0  0  0  0  0  0  0  0  0
  1  2  1  0  0  0  0
  1 10  1  0  0  0  0
  3  1  1  0  0  0  0
  4  5  2  0  0  0  0
  4  1  1  0  0  0  0
  6  4  1  0  0  0  0
  7  6  2  0  0  0  0
  8  6  1  0  0  0  0
  9  8  1  0  0  0  0
 10 12  1  0  0  0  0
 11 10  2  0  0  0  0
 12 13  1  0  0  0  0
M  END
>  <MODEL>
3

>  <REMARK>
 VINA RESULT:    -4.825      1.581      3.790
 INTER + INTRA:          -6.249
 INTER:                  -6.106
 INTRA:                  -0.144
 UNBOUND:                -0.296
  Name = 
  5 active torsions:
  status: ('A' for Active; 'I' for Inactive)
    1  A    between atoms: C_1  and  C_2
    2  A    between atoms: C_1  and  C_7
    3  A    between atoms: C_2  and  C_4
    4  A    between atoms: C_4  and  O_6
    5  A    between atoms: C_7  and  O_9
                            x       y       z     vdW  Elec       q    Type
                         _______ _______ _______ _____ _____    ______ ____

>  <TORSDO>
F 5

$$$$
=
 OpenBabel10302402263D

 13 12  0  0  0  0  0  0  0  0999 V2000
    2.8350    0.5700   -0.6980 C   0  0  0  0  0  0  0  0  0  0  0  0
    3.0390    1.5130   -0.1760 H   0  0  0  0  0  0  0  0  0  0  0  0
    2.5890    0.7830   -1.7400 H   0  0  0  0  0  0  0  0  0  0  0  0
    1.6950   -0.1680   -0.0400 C   0  0  0  0  0  0  0  0  0  0  0  0
    1.6180   -0.4160    1.1340 O   0  0  0  0  0  0  0  0  0  0  0  0
    0.5820   -0.5410   -1.0370 C   0  0  0  0  0  0  0  0  0  0  0  0
    0.0250    0.2820   -1.7190 O   0  0  0  0  0  0  0  0  0  0  0  0
    0.3310   -1.8480   -1.0480 O   0  0  0  0  0  0  0  0  0  0  0  0
    0.8510   -2.2370   -0.3250 H   0  0  0  0  0  0  0  0  0  0  0  0
    4.0730   -0.2990   -0.6080 C   0  0  0  0  0  0  0  0  0  0  0  0
    4.3610   -1.1430   -1.4240 O   0  0  0  0  0  0  0  0  0  0  0  0
    4.8170   -0.0310    0.4730 O   0  0  0  0  0  0  0  0  0  0  0  0
    4.5790    0.8700    0.7510 H   0  0  0  0  0  0  0  0  0  0  0  0
  1 10  1  0  0  0  0
  1  2  1  0  0  0  0
  1  4  1  0  0  0  0
  3  1  1  0  0  0  0
  4  5  2  0  0  0  0
  6  4  1  0  0  0  0
  7  6  2  0  0  0  0
  8  6  1  0  0  0  0
  8  9  1  0  0  0  0
 10 12  1  0  0  0  0
 11 10  2  0  0  0  0
 12 13  1  0  0  0  0
M  END
>  <MODEL>
4

>  <REMARK>
 VINA RESULT:    -4.822      1.252      3.800
 INTER + INTRA:          -6.245
 INTER:                  -6.040
 INTRA:                  -0.205
 UNBOUND:                -0.296
  Name = 
  5 active torsions:
  status: ('A' for Active; 'I' for Inactive)
    1  A    between atoms: C_1  and  C_2
    2  A    between atoms: C_1  and  C_7
    3  A    between atoms: C_2  and  C_4
    4  A    between atoms: C_4  and  O_6
    5  A    between atoms: C_7  and  O_9
                            x       y       z     vdW  Elec       q    Type
                         _______ _______ _______ _____ _____    ______ ____

>  <TORSDO>
F 5

$$$$
=
 OpenBabel10302402263D

 13 12  0  0  0  0  0  0  0  0999 V2000
    0.6160   -1.1190    1.2600 C   0  0  0  0  0  0  0  0  0  0  0  0
    1.1050   -2.0110    1.6710 H   0  0  0  0  0  0  0  0  0  0  0  0
   -0.3070   -1.4160    0.7580 H   0  0  0  0  0  0  0  0  0  0  0  0
    1.5270   -0.4110    0.2870 C   0  0  0  0  0  0  0  0  0  0  0  0
    2.6140    0.0280    0.5520 O   0  0  0  0  0  0  0  0  0  0  0  0
    0.9350   -0.3470   -1.1330 C   0  0  0  0  0  0  0  0  0  0  0  0
    0.4520    0.6600   -1.5860 O   0  0  0  0  0  0  0  0  0  0  0  0
    1.0300   -1.5100   -1.7730 O   0  0  0  0  0  0  0  0  0  0  0  0
    1.1700   -2.1910   -1.0930 H   0  0  0  0  0  0  0  0  0  0  0  0
    0.3200   -0.1700    2.4040 C   0  0  0  0  0  0  0  0  0  0  0  0
   -0.5270    0.6910    2.3590 O   0  0  0  0  0  0  0  0  0  0  0  0
    1.0980   -0.3880    3.4720 O   0  0  0  0  0  0  0  0  0  0  0  0
    0.5250   -0.7890    4.1490 H   0  0  0  0  0  0  0  0  0  0  0  0
  1  2  1  0  0  0  0
  1 10  1  0  0  0  0
  3  1  1  0  0  0  0
  4  5  2  0  0  0  0
  4  1  1  0  0  0  0
  6  4  1  0  0  0  0
  7  6  2  0  0  0  0
  8  6  1  0  0  0  0
  8  9  1  0  0  0  0
 10 12  1  0  0  0  0
 11 10  2  0  0  0  0
 12 13  1  0  0  0  0
M  END
>  <MODEL>
5

>  <REMARK>
 VINA RESULT:    -4.749      1.559      3.776
 INTER + INTRA:          -6.155
 INTER:                  -5.964
 INTRA:                  -0.191
 UNBOUND:                -0.296
  Name = 
  5 active torsions:
  status: ('A' for Active; 'I' for Inactive)
    1  A    between atoms: C_1  and  C_2
    2  A    between atoms: C_1  and  C_7
    3  A    between atoms: C_2  and  C_4
    4  A    between atoms: C_4  and  O_6
    5  A    between atoms: C_7  and  O_9
                            x       y       z     vdW  Elec       q    Type
                         _______ _______ _______ _____ _____    ______ ____

>  <TORSDO>
F 5

$$$$
=
 OpenBabel10302402263D

 13 12  0  0  0  0  0  0  0  0999 V2000
    0.6510   -1.0740    1.1560 C   0  0  0  0  0  0  0  0  0  0  0  0
    1.1760   -1.9480    1.5620 H   0  0  0  0  0  0  0  0  0  0  0  0
   -0.2720   -1.4040    0.6740 H   0  0  0  0  0  0  0  0  0  0  0  0
    1.5200   -0.3430    0.1620 C   0  0  0  0  0  0  0  0  0  0  0  0
    2.6530    0.0050    0.3590 O   0  0  0  0  0  0  0  0  0  0  0  0
    0.8110   -0.1220   -1.1880 C   0  0  0  0  0  0  0  0  0  0  0  0
    0.3990   -1.0370   -1.8560 O   0  0  0  0  0  0  0  0  0  0  0  0
    0.7140    1.1670   -1.5030 O   0  0  0  0  0  0  0  0  0  0  0  0
    1.3000    1.3110   -2.2660 H   0  0  0  0  0  0  0  0  0  0  0  0
    0.3480   -0.1300    2.3010 C   0  0  0  0  0  0  0  0  0  0  0  0
    0.8720   -0.2020    3.3880 O   0  0  0  0  0  0  0  0  0  0  0  0
   -0.5660    0.7960    1.9810 O   0  0  0  0  0  0  0  0  0  0  0  0
   -1.4110    0.3230    1.8870 H   0  0  0  0  0  0  0  0  0  0  0  0
  1  2  1  0  0  0  0
  1 10  1  0  0  0  0
  3  1  1  0  0  0  0
  4  5  2  0  0  0  0
  4  1  1  0  0  0  0
  6  4  1  0  0  0  0
  7  6  2  0  0  0  0
  8  6  1  0  0  0  0
  9  8  1  0  0  0  0
 10 11  2  0  0  0  0
 12 10  1  0  0  0  0
 13 12  1  0  0  0  0
M  END
>  <MODEL>
6

>  <REMARK>
 VINA RESULT:    -4.742      1.590      3.862
 INTER + INTRA:          -6.147
 INTER:                  -5.990
 INTRA:                  -0.158
 UNBOUND:                -0.296
  Name = 
  5 active torsions:
  status: ('A' for Active; 'I' for Inactive)
    1  A    between atoms: C_1  and  C_2
    2  A    between atoms: C_1  and  C_7
    3  A    between atoms: C_2  and  C_4
    4  A    between atoms: C_4  and  O_6
    5  A    between atoms: C_7  and  O_9
                            x       y       z     vdW  Elec       q    Type
                         _______ _______ _______ _____ _____    ______ ____

>  <TORSDO>
F 5

$$$$
=
 OpenBabel10302402263D

 13 12  0  0  0  0  0  0  0  0999 V2000
    2.8360    0.5500   -0.6800 C   0  0  0  0  0  0  0  0  0  0  0  0
    3.0280    1.5240   -0.2140 H   0  0  0  0  0  0  0  0  0  0  0  0
    2.6620    0.6930   -1.7480 H   0  0  0  0  0  0  0  0  0  0  0  0
    1.6380   -0.1180   -0.0470 C   0  0  0  0  0  0  0  0  0  0  0  0
    1.4920   -0.3000    1.1320 O   0  0  0  0  0  0  0  0  0  0  0  0
    0.5680   -0.5100   -1.0830 C   0  0  0  0  0  0  0  0  0  0  0  0
    0.0200    0.3050   -1.7830 O   0  0  0  0  0  0  0  0  0  0  0  0
    0.3410   -1.8200   -1.1040 O   0  0  0  0  0  0  0  0  0  0  0  0
   -0.2570   -2.0100   -0.3610 H   0  0  0  0  0  0  0  0  0  0  0  0
    4.0440   -0.3340   -0.4490 C   0  0  0  0  0  0  0  0  0  0  0  0
    4.8630   -0.1380    0.4190 O   0  0  0  0  0  0  0  0  0  0  0  0
    4.1110   -1.3570   -1.3100 O   0  0  0  0  0  0  0  0  0  0  0  0
    4.2850   -2.1510   -0.7770 H   0  0  0  0  0  0  0  0  0  0  0  0
  1 10  1  0  0  0  0
  1  2  1  0  0  0  0
  1  4  1  0  0  0  0
  3  1  1  0  0  0  0
  4  5  2  0  0  0  0
  6  4  1  0  0  0  0
  7  6  2  0  0  0  0
  8  6  1  0  0  0  0
  8  9  1  0  0  0  0
 10 11  2  0  0  0  0
 12 13  1  0  0  0  0
 12 10  1  0  0  0  0
M  END
>  <MODEL>
7

>  <REMARK>
 VINA RESULT:    -4.726      1.244      3.749
 INTER + INTRA:          -6.127
 INTER:                  -5.976
 INTRA:                  -0.151
 UNBOUND:                -0.296
  Name = 
  5 active torsions:
  status: ('A' for Active; 'I' for Inactive)
    1  A    between atoms: C_1  and  C_2
    2  A    between atoms: C_1  and  C_7
    3  A    between atoms: C_2  and  C_4
    4  A    between atoms: C_4  and  O_6
    5  A    between atoms: C_7  and  O_9
                            x       y       z     vdW  Elec       q    Type
                         _______ _______ _______ _____ _____    ______ ____

>  <TORSDO>
F 5

$$$$
=
 OpenBabel10302402263D

 13 12  0  0  0  0  0  0  0  0999 V2000
    1.9590    0.3950   -1.0490 C   0  0  0  0  0  0  0  0  0  0  0  0
    1.9380    1.3000   -0.4290 H   0  0  0  0  0  0  0  0  0  0  0  0
    1.8660    0.6790   -2.0990 H   0  0  0  0  0  0  0  0  0  0  0  0
    0.8390   -0.5410   -0.6660 C   0  0  0  0  0  0  0  0  0  0  0  0
    0.3540   -1.3700   -1.3890 O   0  0  0  0  0  0  0  0  0  0  0  0
    0.3950   -0.3610    0.7970 C   0  0  0  0  0  0  0  0  0  0  0  0
    0.7360   -1.1170    1.6720 O   0  0  0  0  0  0  0  0  0  0  0  0
   -0.3830    0.7060    0.9620 O   0  0  0  0  0  0  0  0  0  0  0  0
   -1.3010    0.3870    0.9370 H   0  0  0  0  0  0  0  0  0  0  0  0
    3.2730   -0.3170   -0.8030 C   0  0  0  0  0  0  0  0  0  0  0  0
    4.0510   -0.0090    0.0700 O   0  0  0  0  0  0  0  0  0  0  0  0
    3.4830   -1.3280   -1.6570 O   0  0  0  0  0  0  0  0  0  0  0  0
    3.5660   -2.1300   -1.1140 H   0  0  0  0  0  0  0  0  0  0  0  0
  1 10  1  0  0  0  0
  1  4  1  0  0  0  0
  1  2  1  0  0  0  0
  3  1  1  0  0  0  0
  4  6  1  0  0  0  0
  5  4  2  0  0  0  0
  6  8  1  0  0  0  0
  6  7  2  0  0  0  0
  9  8  1  0  0  0  0
 10 11  2  0  0  0  0
 12 13  1  0  0  0  0
 12 10  1  0  0  0  0
M  END
>  <MODEL>
8

>  <REMARK>
 VINA RESULT:    -4.644      1.557      3.187
 INTER + INTRA:          -6.026
 INTER:                  -5.711
 INTRA:                  -0.315
 UNBOUND:                -0.296
  Name = 
  5 active torsions:
  status: ('A' for Active; 'I' for Inactive)
    1  A    between atoms: C_1  and  C_2
    2  A    between atoms: C_1  and  C_7
    3  A    between atoms: C_2  and  C_4
    4  A    between atoms: C_4  and  O_6
    5  A    between atoms: C_7  and  O_9
                            x       y       z     vdW  Elec       q    Type
                         _______ _______ _______ _____ _____    ______ ____

>  <TORSDO>
F 5

$$$$
=
 OpenBabel10302402263D

 13 12  0  0  0  0  0  0  0  0999 V2000
    0.3350   -0.9310    0.3970 C   0  0  0  0  0  0  0  0  0  0  0  0
    1.0270   -1.7510    0.6240 H   0  0  0  0  0  0  0  0  0  0  0  0
   -0.6180   -1.3500    0.0660 H   0  0  0  0  0  0  0  0  0  0  0  0
    0.9030   -0.0340   -0.6760 C   0  0  0  0  0  0  0  0  0  0  0  0
    0.2560    0.6840   -1.3900 O   0  0  0  0  0  0  0  0  0  0  0  0
    2.4410   -0.0920   -0.7380 C   0  0  0  0  0  0  0  0  0  0  0  0
    3.1390    0.7320   -0.2010 O   0  0  0  0  0  0  0  0  0  0  0  0
    2.8790   -1.1370   -1.4350 O   0  0  0  0  0  0  0  0  0  0  0  0
    2.7540   -0.9170   -2.3730 H   0  0  0  0  0  0  0  0  0  0  0  0
    0.1480   -0.1050    1.6520 C   0  0  0  0  0  0  0  0  0  0  0  0
    0.7310   -0.3190    2.6900 O   0  0  0  0  0  0  0  0  0  0  0  0
   -0.7330    0.8910    1.4910 O   0  0  0  0  0  0  0  0  0  0  0  0
   -0.9200    0.9380    0.5380 H   0  0  0  0  0  0  0  0  0  0  0  0
  1  2  1  0  0  0  0
  1 10  1  0  0  0  0
  3  1  1  0  0  0  0
  4  1  1  0  0  0  0
  5  4  2  0  0  0  0
  6  4  1  0  0  0  0
  6  7  2  0  0  0  0
  8  6  1  0  0  0  0
  9  8  1  0  0  0  0
 10 11  2  0  0  0  0
 12 10  1  0  0  0  0
 13 12  1  0  0  0  0
M  END
>  <MODEL>
9

>  <REMARK>
 VINA RESULT:    -4.619      1.738      3.122
 INTER + INTRA:          -5.994
 INTER:                  -5.662
 INTRA:                  -0.332
 UNBOUND:                -0.296
  Name = 
  5 active torsions:
  status: ('A' for Active; 'I' for Inactive)
    1  A    between atoms: C_1  and  C_2
    2  A    between atoms: C_1  and  C_7
    3  A    between atoms: C_2  and  C_4
    4  A    between atoms: C_4  and  O_6
    5  A    between atoms: C_7  and  O_9
                            x       y       z     vdW  Elec       q    Type
                         _______ _______ _______ _____ _____    ______ ____

>  <TORSDO>
F 5

$$$$
=
 OpenBabel10302402263D

 13 12  0  0  0  0  0  0  0  0999 V2000
    1.1130   -0.4790    0.6950 C   0  0  0  0  0  0  0  0  0  0  0  0
    1.0090   -1.5460    0.4620 H   0  0  0  0  0  0  0  0  0  0  0  0
    0.7490    0.1090   -0.1510 H   0  0  0  0  0  0  0  0  0  0  0  0
    2.5540   -0.1320    0.9820 C   0  0  0  0  0  0  0  0  0  0  0  0
    3.0570   -0.1200    2.0730 O   0  0  0  0  0  0  0  0  0  0  0  0
    3.3540    0.1660   -0.3000 C   0  0  0  0  0  0  0  0  0  0  0  0
    3.9040   -0.7010   -0.9330 O   0  0  0  0  0  0  0  0  0  0  0  0
    3.3520    1.4600   -0.6070 O   0  0  0  0  0  0  0  0  0  0  0  0
    3.3820    1.5150   -1.5780 H   0  0  0  0  0  0  0  0  0  0  0  0
    0.3000   -0.1840    1.9390 C   0  0  0  0  0  0  0  0  0  0  0  0
   -0.5700    0.6530    1.9890 O   0  0  0  0  0  0  0  0  0  0  0  0
    0.6500   -0.9510    2.9800 O   0  0  0  0  0  0  0  0  0  0  0  0
    0.1840   -1.7970    2.8630 H   0  0  0  0  0  0  0  0  0  0  0  0
  1  4  1  0  0  0  0
  1 10  1  0  0  0  0
  2  1  1  0  0  0  0
  3  1  1  0  0  0  0
  4  5  2  0  0  0  0
  6  4  1  0  0  0  0
  7  6  2  0  0  0  0
  8  6  1  0  0  0  0
  9  8  1  0  0  0  0
 10 11  2  0  0  0  0
 10 12  1  0  0  0  0
 13 12  1  0  0  0  0
M  END
>  <MODEL>
10

>  <REMARK>
 VINA RESULT:    -4.540      2.093      2.846
 INTER + INTRA:          -5.898
 INTER:                  -5.663
 INTRA:                  -0.235
 UNBOUND:                -0.296
  Name = 
  5 active torsions:
  status: ('A' for Active; 'I' for Inactive)
    1  A    between atoms: C_1  and  C_2
    2  A    between atoms: C_1  and  C_7
    3  A    between atoms: C_2  and  C_4
    4  A    between atoms: C_4  and  O_6
    5  A    between atoms: C_7  and  O_9
                            x       y       z     vdW  Elec       q    Type
                         _______ _______ _______ _____ _____    ______ ____

>  <TORSDO>
F 5

$$$$
