=
     RDKit          3D

 14 14  0  0  0  0  0  0  0  0999 V2000
    1.9630   -0.5120   -1.3910 C   0  0  0  0  0  0  0  0  0  0  0  0
    0.9910   -0.4470   -0.4010 C   0  0  0  0  0  0  0  0  0  0  0  0
    1.4000   -0.2210    0.9130 C   0  0  0  0  0  0  0  0  0  0  0  0
    2.7630   -0.0700    1.1690 C   0  0  0  0  0  0  0  0  0  0  0  0
    3.7040   -0.1300    0.2290 N   0  0  0  0  0  0  0  0  0  0  0  0
    3.2970   -0.3470   -1.0240 C   0  0  0  0  0  0  0  0  0  0  0  0
    1.6930   -0.6850   -2.4280 H   0  0  0  0  0  0  0  0  0  0  0  0
   -0.0640   -0.5680   -0.6300 H   0  0  0  0  0  0  0  0  0  0  0  0
    3.0950    0.1060    2.1900 H   0  0  0  0  0  0  0  0  0  0  0  0
    4.0830   -0.3920   -1.7750 H   0  0  0  0  0  0  0  0  0  0  0  0
    0.4550   -0.1310    2.0560 C   0  0  0  0  0  0  0  0  0  0  0  0
   -0.6960    0.2300    1.9740 O   0  0  0  0  0  0  0  0  0  0  0  0
    1.0130   -0.4990    3.2270 O   0  0  0  0  0  0  0  0  0  0  0  0
    1.1150    0.3220    3.7370 H   0  0  0  0  0  0  0  0  0  0  0  0
  1  6  2  0
  1  2  1  0
  2  3  2  0
  3  4  1  0
  3 11  1  0
  4  9  1  0
  5  4  2  0
  6  5  1  0
  7  1  1  0
  8  2  1  0
 10  6  1  0
 11 13  1  0
 12 11  2  0
 13 14  1  0
M  END
