=
     RDKit          3D

 13 12  0  0  0  0  0  0  0  0999 V2000
    2.1540   -0.0460   -0.6420 C   0  0  2  0  0  0  0  0  0  0  0  0
    2.8680   -0.7650   -1.0620 H   0  0  0  0  0  0  0  0  0  0  0  0
    2.4840    0.9670   -0.8810 H   0  0  0  0  0  0  0  0  0  0  0  0
    2.0450   -0.2130    0.8550 C   0  0  0  0  0  0  0  0  0  0  0  0
    1.0360   -0.4880    1.4470 O   0  0  0  0  0  0  0  0  0  0  0  0
    3.4000   -0.0420    1.5660 C   0  0  0  0  0  0  0  0  0  0  0  0
    3.5080   -0.0840    2.7660 O   0  0  0  0  0  0  0  0  0  0  0  0
    4.4000    0.1480    0.7090 O   0  0  0  0  0  0  0  0  0  0  0  0
    4.1350   -0.2750   -0.1250 H   0  0  0  0  0  0  0  0  0  0  0  0
    0.7930   -0.3220   -1.2470 C   0  0  0  0  0  0  0  0  0  0  0  0
    0.0740    0.5380   -1.7000 O   0  0  0  0  0  0  0  0  0  0  0  0
    0.4710   -1.6220   -1.2280 O   0  0  0  0  0  0  0  0  0  0  0  0
    0.2460   -1.8330   -0.3060 H   0  0  0  0  0  0  0  0  0  0  0  0
  1  4  1  0
  1  2  1  6
  3  1  1  0
  4  5  2  0
  4  6  1  0
  6  7  2  0
  8  6  1  0
  9  8  1  0
 10 12  1  0
 10  1  1  0
 11 10  2  0
 12 13  1  0
M  END
